/*--------------------------------*- C++ -*----------------------------------*\
| =========                 |                                                 |
| \\      /  F ield         | OpenFOAM: The Open Source CFD Toolbox           |
|  \\    /   O peration     | Version:  v2112                                 |
|   \\  /    A nd           | Website:  www.openfoam.com                      |
|    \\/     M anipulation  |                                                 |
\*---------------------------------------------------------------------------*/
FoamFile
{
    version     2.0;
    format      ascii;
    class       volScalarField;
    object      nut;
}
// * * * * * * * * * * * * * * * * * * * * * * * * * * * * * * * * * * * * * //

dimensions      [0 2 -1 0 0 0 0];

field		1.56e-5;

internalField   uniform $field;

boundaryField
{
    aerofoil
    {
        type           nutLowReWallFunction;
        value		uniform 0;
    }

    freestream
    {
        type            freestream;
        freestreamValue uniform $field;
    }

    frontAndBack
    {
        type            empty;
    }
}


// ************************************************************************* //
