/*--------------------------------*- C++ -*----------------------------------*\
| =========                 |                                                 |
| \\      /  F ield         | OpenFOAM: The Open Source CFD Toolbox           |
|  \\    /   O peration     | Version:  v2112                                 |
|   \\  /    A nd           | Website:  www.openfoam.com                      |
|    \\/     M anipulation  |                                                 |
\*---------------------------------------------------------------------------*/
FoamFile
{
    version     2.0;
    format      ascii;
    class       volScalarField;
    object      p;
}
// * * * * * * * * * * * * * * * * * * * * * * * * * * * * * * * * * * * * * //

field           0;

dimensions      [0 2 -2 0 0 0 0];

internalField   uniform $field;

boundaryField
{
    aerofoil
    {
        type           zeroGradient;
    }

    freestream
    {
        type			freestreamPressure;
        freestreamValue	uniform $field;
    }

    frontAndBack
    {
        type            empty;
    }
}


// ************************************************************************* //
