/*--------------------------------*- C++ -*----------------------------------*\
| =========                 |                                                 |
| \\      /  F ield         | OpenFOAM: The Open Source CFD Toolbox           |
|  \\    /   O peration     | Version:  v2112                                 |
|   \\  /    A nd           | Website:  www.openfoam.com                      |
|    \\/     M anipulation  |                                                 |
\*---------------------------------------------------------------------------*/
FoamFile
{
    version     2.0;
    format      ascii;
    class       dictionary;
    object      blockMeshDict;
}
// * * * * * * * * * * * * * * * * * * * * * * * * * * * * * * * * * * * * * //

checkBlockFaceOrientation false;

scale   1;

domain
{
	// Boundary of the domain
	xMin	-200;
	xMax	-$xMin;
	yMin	$xMin;
	yMax	-$xMin;
	xMid	33;
	xAngle	34.556;
	
	// Number of cells in each direction
	yCells	330;
	xUUCells 101;
	xDUCells 101;
	xUMCells 189;
	xDMCells 189;
	xDCells 134;
	
	// Grading
	yGrading	9360076.409;
	yUGrading	53889.885;
	yDGrading	79041.521;	
	xUUGrading	77.867;
	xDUGrading	77.867;
	xUMAeroGrading	15.235;
	xDMAeroGrading	15.235;
	xMGrading	1;
	xDTrailGrading	6.648e-5;	
	xUDGrading	4.260e-2;
	xDDGrading	4.260e-2;
	leadUGrading	7.230e-4;
	leadDGrading	7.230e-4;
	
	// Origin of the arcs
	xOrigin	-550.128;
	yOrigin	 190.741;
}

aerofoil
{
	xLead	0;
	yLead	0;
	xTrail	1;
	yTrail	0;
	xUpper	0.247395;
	yUpper	0;
	xLower	0;
	yLower	0;
}

vertices
(
    ($domain.xMax $domain.yMin 0)
    ($domain.xMax $domain.xAngle 0)
    ($domain.xMax $domain.yMax 0)
    ($domain.xMid $domain.yMax 0)
    ($aerofoil.xUpper $domain.yMax 0)
    ($domain.xMin $aerofoil.yLead 0)
    ($aerofoil.xUpper $domain.yMin 0)
    ($domain.xMid $domain.yMin 0)
    ($aerofoil.xLead $aerofoil.yLead 0)
    ($aerofoil.xLower $aerofoil.yLower 0)
    ($aerofoil.xTrail $aerofoil.yTrail 0)
    ($aerofoil.xUpper $aerofoil.yUpper 0)
    
    ($domain.xMax $domain.yMin 1)
    ($domain.xMax $domain.xAngle 1)
    ($domain.xMax $domain.yMax 1)
    ($domain.xMid $domain.yMax 1)
    ($aerofoil.xUpper $domain.yMax 1)
    ($domain.xMin $aerofoil.yLead 1)
    ($aerofoil.xUpper $domain.yMin 1)
    ($domain.xMid $domain.yMin 1)
    ($aerofoil.xLead $aerofoil.yLead 1)
    ($aerofoil.xLower $aerofoil.yLower 1)
    ($aerofoil.xTrail $aerofoil.yTrail 1)
    ($aerofoil.xUpper $aerofoil.yUpper 1)
);

blocks
(
    hex (1 10 7 0 13 22 19 12)
    ($domain.xDCells $domain.yCells 1)
    edgeGrading
    (
    	$domain.xDTrailGrading $domain.xDDGrading $domain.xDDGrading $domain.xDTrailGrading
    	$domain.yDGrading $domain.yGrading $domain.yGrading $domain.yDGrading    	
    	1 1 1 1
    )
    
    hex (13 22 15 14 1 10 3 2)
    ($domain.xDCells $domain.yCells 1)
    edgeGrading
    (
    	$domain.xDTrailGrading $domain.xUDGrading $domain.xUDGrading $domain.xDTrailGrading
    	$domain.yUGrading $domain.yGrading $domain.yGrading $domain.yUGrading    	
    	1 1 1 1
    )
    
    hex (22 23 16 15 10 11 4 3)
    ($domain.xUMCells $domain.yCells 1)
    edgeGrading
    (
    	$domain.xUMAeroGrading $domain.xMGrading $domain.xMGrading $domain.xUMAeroGrading
    	$domain.yGrading $domain.yGrading $domain.yGrading $domain.yGrading    	
    	1 1 1 1
    )
    
    hex (10 9 6 7 22 21 18 19)
    ($domain.xDMCells $domain.yCells 1)
    edgeGrading
    (
    	$domain.xDMAeroGrading $domain.xMGrading $domain.xMGrading $domain.xDMAeroGrading
    	$domain.yGrading $domain.yGrading $domain.yGrading $domain.yGrading    	
    	1 1 1 1
    )    
    
    hex (23 20 17 16 11 8 5 4)
    ($domain.xUUCells $domain.yCells 1)
    edgeGrading
    (
    	$domain.leadUGrading $domain.xUUGrading $domain.xUUGrading $domain.leadUGrading
    	$domain.yGrading $domain.yGrading $domain.yGrading $domain.yGrading
    	1 1 1 1   
    )
    
    hex (9 8 5 6 21 20 17 18)
    ($domain.xDUCells $domain.yCells 1)
    edgeGrading
    (
    	$domain.leadDGrading $domain.xDUGrading $domain.xDUGrading $domain.leadDGrading
    	$domain.yGrading $domain.yGrading $domain.yGrading $domain.yGrading
    	1 1 1 1   
    )
);

edges
(
	arc 4 5 origin ($aerofoil.xUpper 0 0)	
	arc 16 17 origin ($aerofoil.xUpper 0 1)
	
	arc 5 6 origin ($aerofoil.xUpper 0 0)	
	arc 17 18 origin ($aerofoil.xUpper 0 1)
	
	arc 10 3 origin ($domain.xOrigin $domain.yOrigin 0)
	arc 22 15 origin ($domain.xOrigin $domain.yOrigin 1)
	
	arc 7 10 origin ($domain.xOrigin -$domain.yOrigin 0)	
	arc 19 22 origin ($domain.xOrigin -$domain.yOrigin 1)
);

boundary
(   
    aerofoil
    {
        type wall;
        faces
        (
            (8 11 23 20)
            (8 20 21 9)
            (9 21 22 10)
            (11 10 22 23)
        );
    }

    freestream
    {
        type patch;
        faces
        (   
            // inlet
            (4 5 17 16)
            (5 6 18 17)
            
            // outlet
            (2 1 13 14)
            (1 0 12 13)
            
            // top
            (3 4 16 15)
            (2 3 15 14)
            
            // bottom
            (6 7 19 18)
            (7 0 12 19)
        );
    }
    
    frontAndBack
    {
        type empty;
        faces
        (
            (1 10 3 2)
            (3 10 11 4)
            (4 11 8 5)
            (5 8 9 6)
            (6 9 10 7)
            (0 7 10 1)
            
            (13 14 15 22)
            (15 16 23 22)
            (16 17 20 23)
            (17 18 21 20)
            (18 19 22 21)
            (12 13 22 19)
        );
    }
);

// ************************************************************************* //
